* C:\Users\wlu\Documents\GitHub\CircuitsProject\final.asc
XU1 A V1 N006 nmos3
XU2 B V2 N006 nmos3
XU3 N006 Vb P001 nmos3
XU4 P001 gnd
XU7 B B P002 pmos3
XU8 C B P003 pmos3
XU9 P002 vdd
XU10 P003 vdd
XU11 N003 C P004 nmos3
XU12 C C P005 nmos3
XU13 P005 gnd
XU14 P004 gnd
XU15 N003 A P006 pmos3
XU16 A A P007 pmos3
XU17 P007 vdd
XU18 P006 vdd
XU19 D V2 N002 pmos3
XU20 C V1 N002 pmos3
XU21 N002 N001 P008 pmos3
XU22 N001 N001 P009 pmos3
XU23 P009 vdd
XU24 P008 vdd
XU25 A D P010 nmos3
XU26 D D P011 nmos3
XU27 P010 gnd
XU28 P011 gnd
Vdd P012 P013 5
Vb Vb P014 1.14
XU29 P012 vdd
XU32 P014 gnd
XU33 P013 gnd
C1 N003 P015 10pF
XU30 P015 gnd
XU34 N001 Vref N006 nmos3
Vref Vref P016 0.4
XU5 P016 gnd
V§I N003 N004 0
V3 N004 P017 2.5
XU6 P017 gnd
Vcm N005 P018 1
XU31 P018 gnd
Vdm V1 V2 0.001
R1 N005 V1 1K
R2 V2 N005 1K
.include engr2420.sub
.dc Vdm -1 1 0.05 Vcm 0 5 0.05
.backanno
.end
