Version 4
SHEET 1 1300 680
WIRE 304 -80 288 -80
WIRE 432 -80 304 -80
WIRE 304 -16 304 -80
WIRE 304 -16 224 -16
WIRE -496 16 -512 16
WIRE -224 16 -496 16
WIRE 224 16 224 -16
WIRE 496 16 496 -16
WIRE 752 32 736 32
WIRE 848 32 752 32
WIRE -160 80 -240 80
WIRE -80 80 -160 80
WIRE -576 96 -576 80
WIRE -496 96 -496 16
WIRE -496 96 -576 96
WIRE 672 112 672 96
WIRE 752 112 752 32
WIRE 752 112 672 112
WIRE 672 144 672 112
WIRE 912 192 912 96
WIRE 1040 192 912 192
WIRE 1120 192 1040 192
WIRE 1216 192 1136 192
WIRE -1136 224 -1136 176
WIRE -1072 224 -1136 224
WIRE -576 224 -576 96
WIRE 672 256 672 224
WIRE 752 256 672 256
WIRE 912 256 912 192
WIRE 1040 256 1040 192
WIRE -1136 272 -1136 224
WIRE 752 320 752 256
WIRE 752 320 736 320
WIRE 848 320 752 320
WIRE -368 352 -368 208
WIRE -368 352 -576 352
WIRE -160 352 -368 352
WIRE 48 352 48 208
WIRE 48 352 -160 352
WIRE 224 352 224 320
WIRE 304 352 224 352
WIRE 224 368 224 352
WIRE 496 368 496 320
WIRE 304 432 304 352
WIRE 304 432 288 432
WIRE 432 432 304 432
FLAG 112 144 V2
FLAG -432 144 V1
FLAG -16 144 V2
FLAG -304 144 V1
FLAG -368 80 A
FLAG 672 144 A
FLAG 48 80 B
FLAG 224 16 B
FLAG 496 320 A
FLAG -240 208 C
FLAG 496 16 C
FLAG 672 224 C
FLAG -80 208 D
FLAG 224 320 D
FLAG -1264 272 Vb
FLAG -1072 224 V1
FLAG -224 416 Vb
FLAG -1136 48 V2
FLAG -640 288 Vref
FLAG -960 48 Vref
SYMBOL cktsym\\nmos3 -368 144 R0
WINDOW 0 -19 0 Left 2
SYMATTR InstName U1
SYMBOL cktsym\\nmos3 48 144 M0
WINDOW 0 -16 -2 Left 2
SYMATTR InstName U2
SYMBOL cktsym\\nmos3 -160 416 R0
SYMATTR InstName U3
SYMBOL cktsym\\gnd -160 480 R0
SYMATTR InstName U4
SYMBOL cktsym\\pmos3 224 -80 M0
SYMATTR InstName U7
SYMBOL cktsym\\pmos3 496 -80 R0
SYMATTR InstName U8
SYMBOL cktsym\\vdd 224 -144 R0
SYMATTR InstName U9
SYMBOL cktsym\\vdd 496 -144 R0
SYMATTR InstName U10
SYMBOL cktsym\\nmos3 912 320 R0
SYMATTR InstName U11
SYMBOL cktsym\\nmos3 672 320 M0
SYMATTR InstName U12
SYMBOL cktsym\\gnd 672 384 R0
SYMATTR InstName U13
SYMBOL cktsym\\gnd 912 384 R0
SYMATTR InstName U14
SYMBOL cktsym\\pmos3 912 32 R0
SYMATTR InstName U15
SYMBOL cktsym\\pmos3 672 32 M0
SYMATTR InstName U16
SYMBOL cktsym\\vdd 672 -32 R0
SYMATTR InstName U17
SYMBOL cktsym\\vdd 912 -32 R0
SYMATTR InstName U18
SYMBOL cktsym\\pmos3 -80 144 M0
WINDOW 0 -15 0 Left 2
SYMATTR InstName U19
SYMBOL cktsym\\pmos3 -240 144 R0
WINDOW 0 -14 1 Left 2
SYMATTR InstName U20
SYMBOL cktsym\\pmos3 -160 16 R0
SYMATTR InstName U21
SYMBOL cktsym\\pmos3 -576 16 M0
SYMATTR InstName U22
SYMBOL cktsym\\vdd -576 -48 R0
SYMATTR InstName U23
SYMBOL cktsym\\vdd -160 -48 R0
SYMATTR InstName U24
SYMBOL cktsym\\nmos3 496 432 R0
SYMATTR InstName U25
SYMBOL cktsym\\nmos3 224 432 M0
SYMATTR InstName U26
SYMBOL cktsym\\gnd 496 496 R0
SYMATTR InstName U27
SYMBOL cktsym\\gnd 224 496 R0
SYMATTR InstName U28
SYMBOL cktsym\\vsource -1264 112 R0
SYMATTR Value 5
SYMATTR InstName Vdd
SYMBOL cktsym\\vsource -1264 336 R0
SYMATTR Value 1.14
SYMATTR InstName Vb
SYMBOL cktsym\\vsource -1136 336 R0
WINDOW 123 0 0 Left 2
WINDOW 39 0 0 Left 2
WINDOW 3 48 12 Left 2
SYMATTR Value 1
SYMATTR InstName V1
SYMBOL cktsym\\vdd -1264 48 R0
SYMATTR InstName U29
SYMBOL cktsym\\gnd -1136 400 R0
SYMATTR InstName U31
SYMBOL cktsym\\gnd -1264 400 R0
SYMATTR InstName U32
SYMBOL cktsym\\gnd -1264 176 R0
SYMATTR InstName U33
SYMBOL cktsym\\capacitor 1040 320 R0
SYMATTR Value 10pF
SYMATTR InstName C1
SYMBOL cktsym\\gnd 1040 384 R0
SYMATTR InstName U30
SYMBOL cktsym\\nmos3 -576 288 R0
SYMATTR InstName U34
SYMBOL cktsym\\vsource -1136 112 R0
SYMATTR Value 0.001
SYMATTR InstName Vdm
SYMBOL cktsym\\vsource -960 112 R0
SYMATTR Value 0.4
SYMATTR InstName Vref
SYMBOL cktsym\\gnd -960 176 R0
SYMATTR InstName U5
SYMBOL cktsym\\ammeter1 1120 192 R270
WINDOW 0 18 8 VTop 2
SYMATTR InstName I
SYMBOL cktsym\\vsource 1216 256 R0
SYMATTR Value 2.5
SYMATTR InstName V3
SYMBOL cktsym\\gnd 1216 320 R0
SYMATTR InstName U6
TEXT -960 512 Left 2 !.include engr2420.sub
TEXT -952 544 Left 2 !.tran 200us
