Version 4
SHEET 1 1300 1144
WIRE 304 0 288 0
WIRE 432 0 304 0
WIRE -496 16 -512 16
WIRE -224 16 -496 16
WIRE 304 64 304 0
WIRE 304 64 224 64
WIRE -160 80 -240 80
WIRE -80 80 -160 80
WIRE -576 96 -576 80
WIRE -496 96 -496 16
WIRE -496 96 -576 96
WIRE 224 96 224 64
WIRE 496 96 496 64
WIRE -576 224 -576 96
WIRE 224 336 224 304
WIRE 304 336 224 336
WIRE -368 352 -368 208
WIRE -368 352 -576 352
WIRE -160 352 -368 352
WIRE 48 352 48 208
WIRE 48 352 -160 352
WIRE 224 352 224 336
WIRE 496 352 496 304
WIRE 304 416 304 336
WIRE 304 416 288 416
WIRE 432 416 304 416
WIRE 112 640 96 640
WIRE 208 640 112 640
WIRE 32 720 32 704
WIRE 112 720 112 640
WIRE 112 720 32 720
WIRE -416 736 -416 592
WIRE -320 736 -416 736
WIRE -96 736 -96 592
WIRE -96 736 -192 736
WIRE 32 752 32 720
WIRE 272 800 272 704
WIRE 400 800 272 800
WIRE 480 800 400 800
WIRE 576 800 496 800
WIRE -416 816 -416 736
WIRE -256 816 -288 816
WIRE -224 816 -256 816
WIRE -96 816 -96 736
WIRE -256 864 -256 816
WIRE 32 864 32 832
WIRE 112 864 32 864
WIRE 272 864 272 800
WIRE 400 864 400 800
WIRE 112 928 112 864
WIRE 112 928 96 928
WIRE 208 928 112 928
FLAG 112 144 V2
FLAG -432 144 V1
FLAG -16 144 V2
FLAG -304 144 V1
FLAG -368 80 A
FLAG 32 752 A
FLAG 48 80 B
FLAG 224 96 B
FLAG 496 304 A
FLAG -240 208 C
FLAG 496 96 C
FLAG 32 832 C
FLAG -80 208 D
FLAG 224 304 D
FLAG -560 864 Vb
FLAG -224 416 Vb
FLAG -640 288 Vref
FLAG -720 640 Vref
FLAG -416 592 V1
FLAG -96 592 V2
SYMBOL cktsym\\nmos3 -368 144 R0
WINDOW 0 -19 0 Left 2
SYMATTR InstName U1
SYMBOL cktsym\\nmos3 48 144 M0
WINDOW 0 -16 -2 Left 2
SYMATTR InstName U2
SYMBOL cktsym\\nmos3 -160 416 R0
SYMATTR InstName U3
SYMBOL cktsym\\gnd -160 480 R0
SYMATTR InstName U4
SYMBOL cktsym\\pmos3 224 0 M0
SYMATTR InstName U7
SYMBOL cktsym\\pmos3 496 0 R0
SYMATTR InstName U8
SYMBOL cktsym\\vdd 224 -64 R0
SYMATTR InstName U9
SYMBOL cktsym\\vdd 496 -64 R0
SYMATTR InstName U10
SYMBOL cktsym\\nmos3 272 928 R0
SYMATTR InstName U11
SYMBOL cktsym\\nmos3 32 928 M0
SYMATTR InstName U12
SYMBOL cktsym\\gnd 32 992 R0
SYMATTR InstName U13
SYMBOL cktsym\\gnd 272 992 R0
SYMATTR InstName U14
SYMBOL cktsym\\pmos3 272 640 R0
SYMATTR InstName U15
SYMBOL cktsym\\pmos3 32 640 M0
SYMATTR InstName U16
SYMBOL cktsym\\vdd 32 576 R0
SYMATTR InstName U17
SYMBOL cktsym\\vdd 272 576 R0
SYMATTR InstName U18
SYMBOL cktsym\\pmos3 -80 144 M0
WINDOW 0 -15 0 Left 2
SYMATTR InstName U19
SYMATTR SpiceLine M=2
SYMBOL cktsym\\pmos3 -240 144 R0
WINDOW 0 -14 1 Left 2
SYMATTR InstName U20
SYMATTR SpiceLine M=2
SYMBOL cktsym\\pmos3 -160 16 R0
SYMATTR InstName U21
SYMBOL cktsym\\pmos3 -576 16 M0
SYMATTR InstName U22
SYMBOL cktsym\\vdd -576 -48 R0
SYMATTR InstName U23
SYMBOL cktsym\\vdd -160 -48 R0
SYMATTR InstName U24
SYMBOL cktsym\\nmos3 496 416 R0
SYMATTR InstName U25
SYMBOL cktsym\\nmos3 224 416 M0
SYMATTR InstName U26
SYMBOL cktsym\\gnd 496 480 R0
SYMATTR InstName U27
SYMBOL cktsym\\gnd 224 480 R0
SYMATTR InstName U28
SYMBOL cktsym\\vsource -560 704 R0
SYMATTR Value 5
SYMATTR InstName Vdd
SYMBOL cktsym\\vsource -560 928 R0
SYMATTR Value 1.14
SYMATTR InstName Vb
SYMBOL cktsym\\vdd -560 640 R0
SYMATTR InstName U29
SYMBOL cktsym\\gnd -560 992 R0
SYMATTR InstName U32
SYMBOL cktsym\\gnd -560 768 R0
SYMATTR InstName U33
SYMBOL cktsym\\capacitor 400 928 R0
SYMATTR Value 10pF
SYMATTR InstName C1
SYMBOL cktsym\\gnd 400 992 R0
SYMATTR InstName U30
SYMBOL cktsym\\nmos3 -576 288 R0
SYMATTR InstName U34
SYMBOL cktsym\\vsource -720 704 R0
SYMATTR Value 1.8
SYMATTR InstName Vref
SYMBOL cktsym\\gnd -720 768 R0
SYMATTR InstName U5
SYMBOL cktsym\\ammeter1 480 800 R270
WINDOW 0 18 8 VTop 2
SYMATTR InstName I
SYMBOL cktsym\\vsource 576 864 R0
SYMATTR Value 2.5
SYMATTR InstName V3
SYMBOL cktsym\\gnd 576 928 R0
SYMATTR InstName U6
SYMBOL cktsym\\vsource -256 928 R0
WINDOW 123 0 0 Left 2
WINDOW 39 0 0 Left 2
SYMATTR Value 1
SYMATTR InstName Vcm
SYMBOL cktsym\\gnd -256 992 R0
SYMATTR InstName U31
SYMBOL cktsym\\vsource -256 736 R270
WINDOW 123 0 0 Left 2
WINDOW 39 0 0 Left 2
SYMATTR Value 0.001
SYMATTR InstName Vdm
SYMBOL cktsym\\resistor -352 816 R90
WINDOW 3 12 0 VTop 2
WINDOW 0 -12 0 VBottom 2
SYMATTR Value 1K
SYMATTR InstName R1
SYMBOL cktsym\\resistor -160 816 R90
WINDOW 3 12 0 VTop 2
WINDOW 0 -12 0 VBottom 2
SYMATTR Value 1K
SYMATTR InstName R2
TEXT -744 1088 Left 2 !.include engr2420.sub
TEXT -744 1120 Left 2 !.dc Vdm -1 1 0.05 Vcm 0 5 0.01
