Version 4
SHEET 1 1316 1024
WIRE 272 0 256 0
WIRE 400 0 272 0
WIRE -496 16 -512 16
WIRE -224 16 -496 16
WIRE 272 64 272 0
WIRE 272 64 192 64
WIRE -160 80 -240 80
WIRE -80 80 -160 80
WIRE -576 96 -576 80
WIRE -496 96 -496 16
WIRE -496 96 -576 96
WIRE 192 96 192 64
WIRE 464 96 464 64
WIRE 192 240 192 208
WIRE 272 240 192 240
WIRE -576 256 -576 96
WIRE -368 256 -368 208
WIRE -160 256 -368 256
WIRE 48 256 48 208
WIRE 48 256 -160 256
WIRE 192 256 192 240
WIRE 464 256 464 208
WIRE -368 320 -512 320
WIRE -224 320 -368 320
WIRE 272 320 272 240
WIRE 272 320 256 320
WIRE 400 320 272 320
WIRE -368 352 -368 320
WIRE 64 560 48 560
WIRE 160 560 64 560
WIRE -16 640 -16 624
WIRE 64 640 64 560
WIRE 64 640 -16 640
WIRE -464 656 -464 512
WIRE -368 656 -464 656
WIRE -144 656 -144 512
WIRE -144 656 -240 656
WIRE -16 672 -16 640
WIRE 224 720 224 624
WIRE 352 720 224 720
WIRE 400 720 352 720
WIRE 512 720 416 720
WIRE -464 736 -464 656
WIRE -304 736 -336 736
WIRE -272 736 -304 736
WIRE -144 736 -144 656
WIRE -304 784 -304 736
WIRE -16 784 -16 752
WIRE 64 784 -16 784
WIRE 224 784 224 720
WIRE 352 784 352 720
WIRE 64 848 64 784
WIRE 64 848 48 848
WIRE 160 848 64 848
FLAG 112 144 V2
FLAG -432 144 V1
FLAG -16 144 V2
FLAG -304 144 V1
FLAG -368 80 A
FLAG -16 672 A
FLAG 48 80 B
FLAG 192 96 B
FLAG 464 208 A
FLAG -240 208 C
FLAG 464 96 C
FLAG -16 752 C
FLAG -80 208 D
FLAG 192 208 D
FLAG -624 784 Vb
FLAG -464 512 V1
FLAG -368 352 Vb
FLAG -144 512 V2
SYMBOL cktsym\\nmos3 -368 144 R0
WINDOW 0 -19 0 Left 2
SYMATTR InstName U1
SYMBOL cktsym\\nmos3 48 144 M0
WINDOW 0 -16 -2 Left 2
SYMATTR InstName U2
SYMBOL cktsym\\nmos3 -160 320 R0
SYMATTR InstName U3
SYMBOL cktsym\\gnd -160 384 R0
SYMATTR InstName U4
SYMBOL cktsym\\nmos3 -576 320 M0
SYMATTR InstName U5
SYMBOL cktsym\\gnd -576 384 R0
SYMATTR InstName U6
SYMBOL cktsym\\pmos3 192 0 M0
SYMATTR InstName U7
SYMBOL cktsym\\pmos3 464 0 R0
SYMATTR InstName U8
SYMBOL cktsym\\vdd 192 -64 R0
SYMATTR InstName U9
SYMBOL cktsym\\vdd 464 -64 R0
SYMATTR InstName U10
SYMBOL cktsym\\nmos3 224 848 R0
SYMATTR InstName U11
SYMBOL cktsym\\nmos3 -16 848 M0
SYMATTR InstName U12
SYMBOL cktsym\\gnd -16 912 R0
SYMATTR InstName U13
SYMBOL cktsym\\gnd 224 912 R0
SYMATTR InstName U14
SYMBOL cktsym\\pmos3 224 560 R0
SYMATTR InstName U15
SYMBOL cktsym\\pmos3 -16 560 M0
SYMATTR InstName U16
SYMBOL cktsym\\vdd -16 496 R0
SYMATTR InstName U17
SYMBOL cktsym\\vdd 224 496 R0
SYMATTR InstName U18
SYMBOL cktsym\\pmos3 -80 144 M0
WINDOW 0 -15 0 Left 2
SYMATTR InstName U19
SYMBOL cktsym\\pmos3 -240 144 R0
WINDOW 0 -14 1 Left 2
SYMATTR InstName U20
SYMBOL cktsym\\pmos3 -160 16 R0
SYMATTR InstName U21
SYMBOL cktsym\\pmos3 -576 16 M0
SYMATTR InstName U22
SYMBOL cktsym\\vdd -576 -48 R0
SYMATTR InstName U23
SYMBOL cktsym\\vdd -160 -48 R0
SYMATTR InstName U24
SYMBOL cktsym\\nmos3 464 320 R0
SYMATTR InstName U25
SYMBOL cktsym\\nmos3 192 320 M0
SYMATTR InstName U26
SYMBOL cktsym\\gnd 464 384 R0
SYMATTR InstName U27
SYMBOL cktsym\\gnd 192 384 R0
SYMATTR InstName U28
SYMBOL cktsym\\vsource -624 592 R0
SYMATTR Value 5
SYMATTR InstName Vdd
SYMBOL cktsym\\vsource -624 848 R0
SYMATTR Value 1.14
SYMATTR InstName Vb
SYMBOL cktsym\\vsource -304 848 R0
WINDOW 123 0 0 Left 2
WINDOW 39 0 0 Left 2
SYMATTR Value 1
SYMATTR InstName Vcm
SYMBOL cktsym\\vdd -624 528 R0
SYMATTR InstName U29
SYMBOL cktsym\\gnd -304 912 R0
SYMATTR InstName U31
SYMBOL cktsym\\gnd -624 912 R0
SYMATTR InstName U32
SYMBOL cktsym\\gnd -624 656 R0
SYMATTR InstName U33
SYMBOL cktsym\\capacitor 352 848 R0
SYMATTR Value 10pF
SYMATTR InstName C1
SYMBOL cktsym\\gnd 352 912 R0
SYMATTR InstName U30
SYMBOL cktsym\\vsource -304 656 R270
WINDOW 123 0 0 Left 2
WINDOW 39 0 0 Left 2
SYMATTR Value 0.001
SYMATTR InstName Vdm
SYMBOL cktsym\\ammeter1 400 720 R270
WINDOW 0 18 8 VTop 2
SYMATTR InstName I
SYMBOL cktsym\\vsource 512 784 R0
SYMATTR Value 2.5
SYMATTR InstName V3
SYMBOL cktsym\\gnd 512 848 R0
SYMATTR InstName U34
SYMBOL cktsym\\resistor -400 736 R90
WINDOW 3 12 0 VTop 2
WINDOW 0 -12 0 VBottom 2
SYMATTR Value 1K
SYMATTR InstName R1
SYMBOL cktsym\\resistor -208 736 R90
WINDOW 3 12 0 VTop 2
WINDOW 0 -12 0 VBottom 2
SYMATTR Value 1K
SYMATTR InstName R2
TEXT -648 984 Left 2 !.include engr2420.sub
TEXT -648 1008 Left 2 !.dc Vdm -1 1 0.05 Vcm 0 5 0.05
