Version 4
SHEET 1 1316 680
WIRE 304 -80 288 -80
WIRE 432 -80 304 -80
WIRE 304 -16 304 -80
WIRE 304 -16 224 -16
WIRE -496 16 -512 16
WIRE -224 16 -496 16
WIRE 224 16 224 -16
WIRE 496 16 496 -16
WIRE 752 32 736 32
WIRE 848 32 752 32
WIRE -160 80 -240 80
WIRE -80 80 -160 80
WIRE -576 96 -576 80
WIRE -496 96 -496 16
WIRE -496 96 -576 96
WIRE 672 112 672 96
WIRE 752 112 752 32
WIRE 752 112 672 112
WIRE 672 144 672 112
WIRE -1024 160 -1024 -16
WIRE -928 160 -1024 160
WIRE -704 160 -704 -16
WIRE -704 160 -800 160
WIRE 912 192 912 96
WIRE 1040 192 912 192
WIRE 1088 192 1040 192
WIRE 1232 192 1104 192
WIRE -1024 240 -1024 160
WIRE -864 240 -896 240
WIRE -832 240 -864 240
WIRE -704 240 -704 160
WIRE -576 256 -576 96
WIRE -368 256 -368 208
WIRE -160 256 -368 256
WIRE 48 256 48 208
WIRE 48 256 -160 256
WIRE 672 256 672 224
WIRE 752 256 672 256
WIRE 912 256 912 192
WIRE 1040 256 1040 192
WIRE -864 288 -864 240
WIRE -368 320 -512 320
WIRE -224 320 -368 320
WIRE 752 320 752 256
WIRE 752 320 736 320
WIRE 848 320 752 320
WIRE -368 352 -368 320
WIRE 224 352 224 320
WIRE 304 352 224 352
WIRE 224 368 224 352
WIRE 496 368 496 320
WIRE 304 432 304 352
WIRE 304 432 288 432
WIRE 432 432 304 432
FLAG 112 144 V2
FLAG -432 144 V1
FLAG -16 144 V2
FLAG -304 144 V1
FLAG -368 80 A
FLAG 672 144 A
FLAG 48 80 B
FLAG 224 16 B
FLAG 496 320 A
FLAG -240 208 C
FLAG 496 16 C
FLAG 672 224 C
FLAG -80 208 D
FLAG 224 320 D
FLAG -1168 208 Vb
FLAG -1024 -16 V1
FLAG -368 352 Vb
FLAG -704 -16 V2
SYMBOL cktsym\\nmos3 -368 144 R0
WINDOW 0 -19 0 Left 2
SYMATTR InstName U1
SYMBOL cktsym\\nmos3 48 144 M0
WINDOW 0 -16 -2 Left 2
SYMATTR InstName U2
SYMBOL cktsym\\nmos3 -160 320 R0
SYMATTR InstName U3
SYMBOL cktsym\\gnd -160 384 R0
SYMATTR InstName U4
SYMBOL cktsym\\nmos3 -576 320 M0
SYMATTR InstName U5
SYMBOL cktsym\\gnd -576 384 R0
SYMATTR InstName U6
SYMBOL cktsym\\pmos3 224 -80 M0
SYMATTR InstName U7
SYMBOL cktsym\\pmos3 496 -80 R0
SYMATTR InstName U8
SYMBOL cktsym\\vdd 224 -144 R0
SYMATTR InstName U9
SYMBOL cktsym\\vdd 496 -144 R0
SYMATTR InstName U10
SYMBOL cktsym\\nmos3 912 320 R0
SYMATTR InstName U11
SYMBOL cktsym\\nmos3 672 320 M0
SYMATTR InstName U12
SYMBOL cktsym\\gnd 672 384 R0
SYMATTR InstName U13
SYMBOL cktsym\\gnd 912 384 R0
SYMATTR InstName U14
SYMBOL cktsym\\pmos3 912 32 R0
SYMATTR InstName U15
SYMBOL cktsym\\pmos3 672 32 M0
SYMATTR InstName U16
SYMBOL cktsym\\vdd 672 -32 R0
SYMATTR InstName U17
SYMBOL cktsym\\vdd 912 -32 R0
SYMATTR InstName U18
SYMBOL cktsym\\pmos3 -80 144 M0
WINDOW 0 -15 0 Left 2
SYMATTR InstName U19
SYMBOL cktsym\\pmos3 -240 144 R0
WINDOW 0 -14 1 Left 2
SYMATTR InstName U20
SYMBOL cktsym\\pmos3 -160 16 R0
SYMATTR InstName U21
SYMBOL cktsym\\pmos3 -576 16 M0
SYMATTR InstName U22
SYMBOL cktsym\\vdd -576 -48 R0
SYMATTR InstName U23
SYMBOL cktsym\\vdd -160 -48 R0
SYMATTR InstName U24
SYMBOL cktsym\\nmos3 496 432 R0
SYMATTR InstName U25
SYMBOL cktsym\\nmos3 224 432 M0
SYMATTR InstName U26
SYMBOL cktsym\\gnd 496 496 R0
SYMATTR InstName U27
SYMBOL cktsym\\gnd 224 496 R0
SYMATTR InstName U28
SYMBOL cktsym\\vsource -1168 48 R0
SYMATTR Value 5
SYMATTR InstName Vdd
SYMBOL cktsym\\vsource -1168 272 R0
SYMATTR Value 1.14
SYMATTR InstName Vb
SYMBOL cktsym\\vsource -864 352 R0
WINDOW 123 0 0 Left 2
WINDOW 39 0 0 Left 2
SYMATTR Value 1
SYMATTR InstName Vcm
SYMBOL cktsym\\vdd -1168 -16 R0
SYMATTR InstName U29
SYMBOL cktsym\\gnd -864 416 R0
SYMATTR InstName U31
SYMBOL cktsym\\gnd -1168 336 R0
SYMATTR InstName U32
SYMBOL cktsym\\gnd -1168 112 R0
SYMATTR InstName U33
SYMBOL cktsym\\capacitor 1040 320 R0
SYMATTR Value 10pF
SYMATTR InstName C1
SYMBOL cktsym\\gnd 1040 384 R0
SYMATTR InstName U30
SYMBOL cktsym\\vsource -864 160 R270
WINDOW 123 0 0 Left 2
WINDOW 39 0 0 Left 2
SYMATTR Value 0.001
SYMATTR InstName Vdm
SYMBOL cktsym\\ammeter1 1088 192 R270
WINDOW 0 18 8 VTop 2
SYMATTR InstName I
SYMBOL cktsym\\vsource 1232 256 R0
SYMATTR Value 2.5
SYMATTR InstName V3
SYMBOL cktsym\\gnd 1232 320 R0
SYMATTR InstName U34
SYMBOL cktsym\\resistor -960 240 R90
WINDOW 3 12 0 VTop 2
WINDOW 0 -12 0 VBottom 2
SYMATTR Value 1K
SYMATTR InstName R1
SYMBOL cktsym\\resistor -768 240 R90
WINDOW 3 12 0 VTop 2
WINDOW 0 -12 0 VBottom 2
SYMATTR Value 1K
SYMATTR InstName R2
TEXT -1176 448 Left 2 !.include engr2420.sub
TEXT -1176 480 Left 2 !.dc Vdm -1 1 0.05 Vcm 0 5 0.05
